5
Properties=species:S:1:pos:R:3 pbc="F F F"
Ag       5.31646600       6.77446100       8.00000000
Ag       6.62900800       9.13116000       8.00000100
Ag       8.00000000       6.73805800       8.00001700
Ag       9.37099200       9.13116000       8.00000100
Ag      10.68353400       6.77446100       8.00000100
